/*--------------------------------*- C++ -*----------------------------------*\
  =========                 |
  \\      /  F ield         | OpenFOAM: The Open Source CFD Toolbox
   \\    /   O peration     | Website:  https://openfoam.org
    \\  /    A nd           | Version:  7
     \\/     M anipulation  |
\*---------------------------------------------------------------------------*/
FoamFile
{
    version     2.0;
    format      ascii;
    class       dictionary;
    location    "constant";
    object      transportProperties;
}
// * * * * * * * * * * * * * * * * * * * * * * * * * * * * * * * * * * * * * //

rho             rho [1 -3 0 0 0 0 0] 1000;

cp_l            cp_l [0 2 -2 -1 0 0 0] 4.186e3;

cp_s            cp_s [0 2 -2 -1 0 0 0] 2.04e3;

k               k [1 1 -3 -1 0 0 0] 0.6;

Ts              Ts [0 0 0 1 0 0 0] 272.15;

Tl              Tl [0 0 0 1 0 0 0] 274.15;

L               L [0 2 -2 0 0 0 0] 334e3;


// ************************************************************************* //T
