/*--------------------------------*- C++ -*----------------------------------*\
  =========                 |
  \\      /  F ield         | OpenFOAM: The Open Source CFD Toolbox
   \\    /   O peration     | Website:  https://openfoam.org
    \\  /    A nd           | Version:  7
     \\/     M anipulation  |
\*---------------------------------------------------------------------------*/
FoamFile
{
    version     2.0;
    format      ascii;
    class       dictionary;
    location    "system";
    object      fvSolution;
}
// * * * * * * * * * * * * * * * * * * * * * * * * * * * * * * * * * * * * * //

solvers
{
    T
    {
        solver          smoothSolver;
        smoother	GaussSeidel;
        tolerance       1e-08;
        relTol          0;
	nSweeps		1;
    }


    TFinal
    {
        $T;
        relTol          0;
    }
    

    f
    {
        tolerance       1e-06;
        relTol          0;
    }


    cp_mean
    {
        tolerance       1e-06;
        relTol          0;
    }


    cp_app
    {
        tolerance       1e-06;
        relTol          0;
    }

    DT
    {
        tolerance       1e-06;
        relTol          0;
    }

}

PIMPLE
{
    nNonOrthogonalCorrectors 1;
    nOuterCorrectors         10;
  //  nCorrectors         2;
    outerCorrectorResidualControl
    {
     T
     {
      tolerance 1e-6;
      relTol 0;
      }
    }
}


relaxationFactors
{
    fields
    {
        f             0.98;
        cp_mean	      0.98;
        cp_app	      0.98;
        DT            0.98;
    }

}

// ************************************************************************* //
